models/39bus_psse/39bus_noRE_v33.raw
0,   100.00,  32, 0, 1, 60.00     / PSS(R)E 32 RAW created by rawd32  FRI, MAR 22 2024  14:10
NEW ENGLAND TEST SYSTEM, 39 BUSES, 9 GENERATORS
CREATED BY PABLO LEDESMA PABLOLE@ING.UC3M.ES
     1,'            ',   1.0000,1,   1,   1,   1,1.03263,  -9.3745
     2,'            ',   1.0000,1,   1,   1,   1,1.01018,  -6.5755
     3,'            ',   1.0000,1,   1,   1,   1,0.97155,  -9.6251
     4,'            ',   1.0000,1,   1,   2,   1,0.92803, -10.4714
     5,'            ',   1.0000,1,   1,   2,   1,0.91321,  -8.9915
     6,'            ',   1.0000,1,   1,   2,   1,0.91418,  -8.1231
     7,'            ',   1.0000,1,   1,   2,   1,0.85819, -10.6810
     8,'            ',   1.0000,1,   1,   2,   1,0.87598, -11.4125
     9,'            ',   1.0000,1,   1,   1,   1,0.97872, -11.2119
    10,'            ',   1.0000,1,   1,   2,   1,0.93541,  -5.3629
    11,'            ',   1.0000,1,   1,   2,   1,0.92688,  -6.2964
    12,'            ',   1.0000,1,   1,   2,   1,0.90879,  -6.3369
    13,'            ',   1.0000,1,   1,   2,   1,0.93296,  -6.2223
    14,'            ',   1.0000,1,   1,   2,   1,0.93265,  -8.2337
    15,'            ',   1.0000,1,   1,   1,   1,0.93708,  -8.7778
    16,'            ',   1.0000,1,   1,   1,   1,0.95541,  -7.1588
    17,'            ',   1.0000,1,   1,   1,   1,0.96494,  -8.3561
    18,'            ',   1.0000,1,   1,   1,   1,0.96592,  -9.3302
    19,'            ',   1.0000,1,   1,   1,   1,0.97874,  -1.8217
    20,'            ',   1.0000,1,   1,   1,   1,0.98040,  -3.2696
    21,'            ',   1.0000,1,   1,   1,   1,0.97212,  -4.4736
    22,'            ',   1.0000,1,   1,   1,   1,1.00938,   0.3664
    23,'            ',   1.0000,1,   1,   1,   1,1.00754,   0.1349
    24,'            ',   1.0000,1,   1,   1,   1,0.96662,  -7.0350
    25,'            ',   1.0000,1,   1,   1,   1,1.01951,  -5.1198
    26,'            ',   1.0000,1,   1,   1,   1,0.99919,  -6.3844
    27,'            ',   1.0000,1,   1,   1,   1,0.97694,  -8.5765
    28,'            ',   1.0000,1,   1,   1,   1,1.00139,  -2.5327
    29,'            ',   1.0000,1,   1,   1,   1,1.00350,   0.4823
    30,'            ',   1.0000,2,   1,   1,   1,1.04750,  -4.1246
    31,'            ',   1.0000,2,   1,   2,   1,1.04000,   0.4014
    32,'            ',   1.0000,2,   1,   2,   1,0.98310,   2.7640
    33,'            ',   1.0000,2,   1,   1,   1,0.99720,   3.4018
    34,'            ',   1.0000,2,   1,   1,   1,1.01230,   1.9247
    35,'            ',   1.0000,2,   1,   1,   1,1.04930,   5.4011
    36,'            ',   1.0000,2,   1,   1,   1,1.06350,   8.2405
    37,'            ',   1.0000,2,   1,   1,   1,1.02780,   1.7287
    38,'            ',   1.0000,2,   1,   1,   1,1.02650,   7.6315
    39,'            ',   1.0000,3,   1,   1,   1,1.03000, -10.9600
 0 /End of Bus data, Begin Load data
     3,'1 ',1,   1,   1,   322.000,     2.400,     0.000,     0.000,     0.000,     0.000,   1,1
     4,'1 ',1,   1,   2,   500.000,   184.000,     0.000,     0.000,     0.000,     0.000,   1,1
     7,'1 ',1,   1,   2,   233.800,   840.000,     0.000,     0.000,     0.000,     0.000,   1,1
     8,'1 ',1,   1,   2,   522.000,   176.000,     0.000,     0.000,     0.000,     0.000,   1,1
    12,'1 ',1,   1,   2,     8.500,    88.000,     0.000,     0.000,     0.000,     0.000,   1,1
    15,'1 ',1,   1,   1,   320.000,   153.000,     0.000,     0.000,     0.000,     0.000,   1,1
    16,'1 ',1,   1,   1,   329.400,   323.000,     0.000,     0.000,     0.000,     0.000,   1,1
    18,'1 ',1,   1,   1,   158.000,    30.000,     0.000,     0.000,     0.000,     0.000,   1,1
    20,'1 ',1,   1,   1,   680.000,   103.000,     0.000,     0.000,     0.000,     0.000,   1,1
    21,'1 ',1,   1,   1,   274.000,   115.000,     0.000,     0.000,     0.000,     0.000,   1,1
    23,'1 ',1,   1,   1,   247.500,    84.600,     0.000,     0.000,     0.000,     0.000,   1,1
    24,'1 ',1,   1,   1,   308.600,   -92.200,     0.000,     0.000,     0.000,     0.000,   1,1
    25,'1 ',1,   1,   1,   224.000,    47.200,     0.000,     0.000,     0.000,     0.000,   1,1
    26,'1 ',1,   1,   1,   139.000,    17.000,     0.000,     0.000,     0.000,     0.000,   1,1
    27,'1 ',1,   1,   1,   281.000,    75.500,     0.000,     0.000,     0.000,     0.000,   1,1
    28,'1 ',1,   1,   1,   206.000,    27.600,     0.000,     0.000,     0.000,     0.000,   1,1
    29,'1 ',1,   1,   1,   283.500,   126.900,     0.000,     0.000,     0.000,     0.000,   1,1
    31,'1 ',1,   1,   2,     9.200,     4.600,     0.000,     0.000,     0.000,     0.000,   1,1
    39,'1 ',1,   1,   1,  1104.000,   250.000,     0.000,     0.000,     0.000,     0.000,   1,1
 0 /End of Load data, Begin Fixed shunt data
     4,'1 ',1,     0.000,   100.000
     5,'1 ',1,     0.000,   200.000
 0 /End of Fixed shunt data, Begin Generator data
    30,'G ',   250.000,   221.358,   800.000,  -500.000,1.04750,     0,  1000.000, 1.40000E-3, 2.00000E-1, 0.00000E+0, 0.00000E+0,1.00000,1,  100.0,  9999.900,     0.000,   1,1.0000
    31,'G ',   572.930,   570.030,   800.000,  -500.000,1.04000,     0,  1000.000, 2.70000E-2, 2.00000E-1, 0.00000E+0, 0.00000E+0,1.00000,1,  100.0,  9999.900,     0.000,   1,1.0000
    32,'G ',   650.000,   280.596,   800.000,  -500.000,0.98310,     0,  1000.000, 3.86000E-3, 2.00000E-1, 0.00000E+0, 0.00000E+0,1.00000,1,  100.0,  9999.900,     0.000,   1,1.0000
    33,'G ',   632.000,   127.003,   800.000,  -500.000,0.99720,     0,  1000.000, 2.22000E-3, 2.00000E-1, 0.00000E+0, 0.00000E+0,1.00000,1,  100.0,  9999.900,     0.000,   1,1.0000
    34,'G ',   508.000,   176.650,   400.000,  -300.000,1.01230,     0,  1000.000, 1.40000E-3, 2.00000E-1, 0.00000E+0, 0.00000E+0,1.00000,1,  100.0,  9999.900,     0.000,   1,1.0000
    35,'G ',   650.000,   321.498,   800.000,  -500.000,1.04930,     0,  1000.000, 6.15000E-2, 2.00000E-1, 0.00000E+0, 0.00000E+0,1.00000,1,  100.0,  9999.900,     0.000,   1,1.0000
    36,'G ',   560.000,   247.865,   800.000,  -500.000,1.06350,     0,  1000.000, 2.68000E-3, 2.00000E-1, 0.00000E+0, 0.00000E+0,1.00000,1,  100.0,  9999.900,     0.000,   1,1.0000
    37,'G ',   540.000,    55.007,   800.000,  -500.000,1.02780,     0,  1000.000, 6.86000E-3, 2.00000E-1, 0.00000E+0, 0.00000E+0,1.00000,1,  100.0,  9999.900,     0.000,   1,1.0000
    38,'G ',   830.000,   160.133,   800.000,  -500.000,1.02650,     0,  1000.000, 3.00000E-3, 2.00000E-1, 0.00000E+0, 0.00000E+0,1.00000,1,  100.0,  9999.900,     0.000,   1,1.0000
    39,'G ',  1012.247,   352.359,  1500.000, -1000.000,1.03000,     0,  2000.000, 1.00000E-3, 2.00000E-2, 0.00000E+0, 0.00000E+0,1.00000,1,  100.0,  9999.900,     0.000,   1,1.0000
 0 /End of Generator data, Begin Branch data
     1,      2,'1 ', 3.50000E-3, 4.11000E-2,   0.69870,    0.00,    0.00,    1.00,  0.00000,  0.00000,  0.00000,  0.00000,1,1,   0.00,   1,1.0000
     1,     39,'1 ', 1.00000E-3, 2.50000E-2,   0.75000,    0.00,    0.00,    1.00,  0.00000,  0.00000,  0.00000,  0.00000,1,1,   0.00,   1,1.0000
     2,      3,'1 ', 1.30000E-3, 1.51000E-2,   0.25720,    0.00,    0.00,    1.00,  0.00000,  0.00000,  0.00000,  0.00000,1,1,   0.00,   1,1.0000
     2,     25,'1 ', 7.00000E-3, 8.60000E-3,   0.14600,    0.00,    0.00,    1.00,  0.00000,  0.00000,  0.00000,  0.00000,1,1,   0.00,   1,1.0000
     3,      4,'1 ', 1.30000E-3, 2.13000E-2,   0.22140,    0.00,    0.00,    1.00,  0.00000,  0.00000,  0.00000,  0.00000,1,1,   0.00,   1,1.0000
     3,     18,'1 ', 1.10000E-3, 1.33000E-2,   0.21380,    0.00,    0.00,    1.00,  0.00000,  0.00000,  0.00000,  0.00000,1,1,   0.00,   1,1.0000
     4,      5,'1 ', 8.00000E-4, 1.28000E-2,   0.13420,    0.00,    0.00,    1.00,  0.00000,  0.00000,  0.00000,  0.00000,1,1,   0.00,   1,1.0000
     4,     14,'1 ', 8.00000E-4, 1.29000E-2,   0.13820,    0.00,    0.00,    1.00,  0.00000,  0.00000,  0.00000,  0.00000,1,1,   0.00,   1,1.0000
     5,      6,'1 ', 2.00000E-4, 2.60000E-3,   0.04340,    0.00,    0.00,    1.00,  0.00000,  0.00000,  0.00000,  0.00000,1,2,   0.00,   1,1.0000
     5,      8,'1 ', 8.00000E-4, 1.12000E-2,   0.14760,    0.00,    0.00,    1.00,  0.00000,  0.00000,  0.00000,  0.00000,1,1,   0.00,   1,1.0000
     6,      7,'1 ', 6.00000E-4, 9.20000E-3,   0.11300,    0.00,    0.00,    1.00,  0.00000,  0.00000,  0.00000,  0.00000,1,1,   0.00,   1,1.0000
     6,     11,'1 ', 7.00000E-4, 8.20000E-3,   0.13890,    0.00,    0.00,    1.00,  0.00000,  0.00000,  0.00000,  0.00000,1,1,   0.00,   1,1.0000
     7,      8,'1 ', 4.00000E-4, 4.60000E-3,   0.07800,    0.00,    0.00,    1.00,  0.00000,  0.00000,  0.00000,  0.00000,1,1,   0.00,   1,1.0000
     8,      9,'1 ', 2.30000E-3, 3.63000E-2,   0.38040,    0.00,    0.00,    1.00,  0.00000,  0.00000,  0.00000,  0.00000,1,1,   0.00,   1,1.0000
     9,     39,'1 ', 1.00000E-3, 2.50000E-2,   1.20000,    0.00,    0.00,    1.00,  0.00000,  0.00000,  0.00000,  0.00000,1,1,   0.00,   1,1.0000
    10,     11,'1 ', 4.00000E-4, 4.30000E-3,   0.07290,    0.00,    0.00,    1.00,  0.00000,  0.00000,  0.00000,  0.00000,1,1,   0.00,   1,1.0000
    10,     13,'1 ', 4.00000E-4, 4.30000E-3,   0.07290,    0.00,    0.00,    1.00,  0.00000,  0.00000,  0.00000,  0.00000,1,1,   0.00,   1,1.0000
    13,     14,'1 ', 9.00000E-4, 1.01000E-2,   0.17230,    0.00,    0.00,    1.00,  0.00000,  0.00000,  0.00000,  0.00000,1,1,   0.00,   1,1.0000
    14,     15,'1 ', 1.80000E-3, 2.17000E-2,   0.36600,    0.00,    0.00,    1.00,  0.00000,  0.00000,  0.00000,  0.00000,1,1,   0.00,   1,1.0000
    15,     16,'1 ', 9.00000E-4, 9.40000E-3,   0.17100,    0.00,    0.00,    1.00,  0.00000,  0.00000,  0.00000,  0.00000,1,1,   0.00,   1,1.0000
    16,     17,'1 ', 7.00000E-4, 8.90000E-3,   0.13420,    0.00,    0.00,    1.00,  0.00000,  0.00000,  0.00000,  0.00000,1,1,   0.00,   1,1.0000
    16,     19,'1 ', 1.60000E-3, 1.95000E-2,   0.30400,    0.00,    0.00,    1.00,  0.00000,  0.00000,  0.00000,  0.00000,1,1,   0.00,   1,1.0000
    16,     21,'1 ', 8.00000E-4, 1.35000E-2,   0.25480,    0.00,    0.00,    1.00,  0.00000,  0.00000,  0.00000,  0.00000,1,1,   0.00,   1,1.0000
    16,     24,'1 ', 3.00000E-4, 5.90000E-3,   0.06800,    0.00,    0.00,    1.00,  0.00000,  0.00000,  0.00000,  0.00000,1,1,   0.00,   1,1.0000
    17,     18,'1 ', 7.00000E-4, 8.20000E-3,   0.13190,    0.00,    0.00,    1.00,  0.00000,  0.00000,  0.00000,  0.00000,1,1,   0.00,   1,1.0000
    17,     27,'1 ', 1.30000E-3, 1.73000E-2,   0.32160,    0.00,    0.00,    1.00,  0.00000,  0.00000,  0.00000,  0.00000,1,1,   0.00,   1,1.0000
    21,     22,'1 ', 8.00000E-4, 1.40000E-2,   0.25650,    0.00,    0.00,    1.00,  0.00000,  0.00000,  0.00000,  0.00000,1,1,   0.00,   1,1.0000
    22,     23,'1 ', 6.00000E-4, 9.60000E-3,   0.18460,    0.00,    0.00,    1.00,  0.00000,  0.00000,  0.00000,  0.00000,1,1,   0.00,   1,1.0000
    23,     24,'1 ', 2.20000E-3, 3.50000E-2,   0.36100,    0.00,    0.00,    1.00,  0.00000,  0.00000,  0.00000,  0.00000,1,1,   0.00,   1,1.0000
    25,     26,'1 ', 3.20000E-3, 3.23000E-2,   0.51300,    0.00,    0.00,    1.00,  0.00000,  0.00000,  0.00000,  0.00000,1,1,   0.00,   1,1.0000
    26,     27,'1 ', 1.40000E-3, 1.47000E-2,   0.23960,    0.00,    0.00,    1.00,  0.00000,  0.00000,  0.00000,  0.00000,1,1,   0.00,   1,1.0000
    26,     28,'1 ', 4.30000E-3, 4.74000E-2,   0.78020,    0.00,    0.00,    1.00,  0.00000,  0.00000,  0.00000,  0.00000,1,1,   0.00,   1,1.0000
    26,     29,'1 ', 5.70000E-3, 6.25000E-2,   1.02900,    0.00,    0.00,    1.00,  0.00000,  0.00000,  0.00000,  0.00000,1,1,   0.00,   1,1.0000
    28,     29,'1 ', 1.40000E-3, 1.51000E-2,   0.24900,    0.00,    0.00,    1.00,  0.00000,  0.00000,  0.00000,  0.00000,1,1,   0.00,   1,1.0000
 0 /End of Branch data, Begin Transformer data
     2,    30,     0,'1 ',1,1,1, 0.00000E+0, 0.00000E+0,2,'                                        ',1,   1,1.0000
 0.00000E+0, 1.81000E-2,   100.00
1.00000,   0.000,   0.000,     0.00,     0.00,     0.00, 0,      0, 1.20000, 0.80000, 1.20000, 0.80000,   8, 0, 0.00000, 0.00000,  0.000
1.00000,   0.000
    31,     6,     0,'1 ',1,1,1, 0.00000E+0, 0.00000E+0,2,'                                        ',1,   1,1.0000
 0.00000E+0, 2.50000E-2,   100.00
0.97143,   0.000,   0.000,     0.00,     0.00,     0.00, 1,      6, 1.20000, 0.80000, 1.17000, 0.98000,   8, 0, 0.00000, 0.00000,  0.000
1.00000,   0.000
    10,    32,     0,'1 ',1,1,1, 0.00000E+0, 0.00000E+0,2,'                                        ',1,   1,1.0000
 0.00000E+0, 2.00000E-2,   100.00
1.00000,   0.000,   0.000,     0.00,     0.00,     0.00, 0,      0, 1.20000, 0.80000, 1.20000, 0.80000,   8, 0, 0.00000, 0.00000,  0.000
1.00000,   0.000
    12,    11,     0,'1 ',1,1,1, 0.00000E+0, 0.00000E+0,2,'                                        ',1,   1,1.0000
 1.60000E-3, 4.35000E-2,   100.00
1.00000,   0.000,   0.000,     0.00,     0.00,     0.00, 0,      0, 1.20000, 0.80000, 1.20000, 0.80000,   8, 0, 0.00000, 0.00000,  0.000
1.00000,   0.000
    12,    13,     0,'1 ',1,1,1, 0.00000E+0, 0.00000E+0,2,'                                        ',1,   1,1.0000
 1.60000E-3, 4.35000E-2,   100.00
1.00000,   0.000,   0.000,     0.00,     0.00,     0.00, 0,      0, 1.20000, 0.80000, 1.20000, 0.80000,   8, 0, 0.00000, 0.00000,  0.000
1.00000,   0.000
    19,    20,     0,'1 ',1,1,1, 0.00000E+0, 0.00000E+0,2,'                                        ',1,   1,1.0000
 7.00000E-4, 1.38000E-2,   100.00
1.00000,   0.000,   0.000,     0.00,     0.00,     0.00, 0,      0, 1.20000, 0.80000, 1.20000, 0.80000,   8, 0, 0.00000, 0.00000,  0.000
1.00000,   0.000
    19,    33,     0,'1 ',1,1,1, 0.00000E+0, 0.00000E+0,2,'                                        ',1,   1,1.0000
 7.00000E-4, 1.42000E-2,   100.00
1.00000,   0.000,   0.000,     0.00,     0.00,     0.00, 0,      0, 1.20000, 0.80000, 1.20000, 0.80000,   8, 0, 0.00000, 0.00000,  0.000
1.00000,   0.000
    20,    34,     0,'1 ',1,1,1, 0.00000E+0, 0.00000E+0,2,'                                        ',1,   1,1.0000
 9.00000E-4, 1.80000E-2,   100.00
1.00000,   0.000,   0.000,     0.00,     0.00,     0.00, 0,      0, 1.20000, 0.80000, 1.20000, 0.80000,   8, 0, 0.00000, 0.00000,  0.000
1.00000,   0.000
    22,    35,     0,'1 ',1,1,1, 0.00000E+0, 0.00000E+0,2,'                                        ',1,   1,1.0000
 0.00000E+0, 1.43000E-2,   100.00
1.00000,   0.000,   0.000,     0.00,     0.00,     0.00, 0,      0, 1.20000, 0.80000, 1.20000, 0.80000,   8, 0, 0.00000, 0.00000,  0.000
1.00000,   0.000
    23,    36,     0,'1 ',1,1,1, 0.00000E+0, 0.00000E+0,2,'                                        ',1,   1,1.0000
 5.00000E-4, 2.72000E-2,   100.00
1.00000,   0.000,   0.000,     0.00,     0.00,     0.00, 0,      0, 1.20000, 0.80000, 1.20000, 0.80000,   8, 0, 0.00000, 0.00000,  0.000
1.00000,   0.000
    25,    37,     0,'1 ',1,1,1, 0.00000E+0, 0.00000E+0,2,'                                        ',1,   1,1.0000
 6.00000E-4, 2.32000E-2,   100.00
1.00000,   0.000,   0.000,     0.00,     0.00,     0.00, 0,      0, 1.20000, 0.80000, 1.20000, 0.80000,   8, 0, 0.00000, 0.00000,  0.000
1.00000,   0.000
    29,    38,     0,'1 ',1,1,1, 0.00000E+0, 0.00000E+0,2,'                                        ',1,   1,1.0000
 8.00000E-4, 1.56000E-2,   100.00
1.00000,   0.000,   0.000,     0.00,     0.00,     0.00, 0,      0, 1.20000, 0.80000, 1.20000, 0.80000,   8, 0, 0.00000, 0.00000,  0.000
1.00000,   0.000
 0 /End of Transformer data, Begin Area interchange data
 0 /End of Area interchange data, Begin Two-terminal dc line data
 0 /End of Two-terminal dc line data, Begin VSC dc line data
 0 /End of VSC dc line data, Begin Impedance correction table data
 0 /End of Impedance correction table data, Begin Multi-terminal dc line data
 0 /End of Multi-terminal dc line data, Begin Multi-section line data
 0 /End of Multi-section line data, Begin Zone data
   1,'EXTERNAL    '
   2,'LOAD CENTER '
 0 /End of Zone data, Begin Inter-area transfer data
 0 /End of Inter-area transfer data, Begin Owner data
 0 /End of Owner data, Begin FACTS device data
 0 /End of FACTS device data, Begin Switched shunt data
 0 /End of Switched shunt data, Begin GNE device data
 0 /End of GNE device data
Q
